

 ****************************** EPMacro processing begun.


 KRDRD  --> kardi1=   1  KARDI2= 501 KARDX= 502  mTxtP=     0  mStk=     0
      *   1 * !-Generator IDFEditor 1.43
 KRDRD  <-3-  KARDI1=   1  KARDI2=  27  KARDX=   1  KRDNUM=   1 mTxtP =     0  mP=     0  mStk=     0
            .2345678.1.2345678.2.2345678.3.2345678.4.2345678.5.2345678.6.2345678.7.2345678.8.2345678.9.2345678.0
            !-Generator IDFEditor 1.43 
 KRDRD  --> kardi1=   1  KARDI2=  27 KARDX=  28  mTxtP=     0  mStk=     0
      *   2 * !-Option SortedOrder
 KRDRD  <-3-  KARDI1=   1  KARDI2=  21  KARDX=   1  KRDNUM=   2 mTxtP =     0  mP=     0  mStk=     0
            .2345678.1.2345678.2.2345678.3.2345678.4.2345678.5.2345678.6.2345678.7.2345678.8.2345678.9.2345678.0
            !-Option SortedOrder 
 KRDRD  --> kardi1=   1  KARDI2=  21 KARDX=  22  mTxtP=     0  mStk=     0
      *   3 *
 KRDRD  <-3-  KARDI1=   1  KARDI2=   1  KARDX=   1  KRDNUM=   3 mTxtP =     0  mP=     0  mStk=     0
            .2345678.1.2345678.2.2345678.3.2345678.4.2345678.5.2345678.6.2345678.7.2345678.8.2345678.9.2345678.0
             
 KRDRD  --> kardi1=   1  KARDI2=   1 KARDX=   2  mTxtP=     0  mStk=     0
      *   4 * !-NOTE: All comments with '!-' are ignored by the IDFEditor and are generated automatically.
 KRDRD  <-3-  KARDI1=   1  KARDI2=  93  KARDX=   1  KRDNUM=   4 mTxtP =     0  mP=     0  mStk=     0
            .2345678.1.2345678.2.2345678.3.2345678.4.2345678.5.2345678.6.2345678.7.2345678.8.2345678.9.2345678.0
            !-NOTE: All comments with '!-' are ignored by the IDFEditor and are generated automatically. 
 KRDRD  --> kardi1=   1  KARDI2=  93 KARDX=  94  mTxtP=     0  mStk=     0
      *   5 * !-      Use '!' comments if they need to be retained when using the IDFEditor.
 KRDRD  <-3-  KARDI1=   1  KARDI2=  79  KARDX=   1  KRDNUM=   5 mTxtP =     0  mP=     0  mStk=     0
            .2345678.1.2345678.2.2345678.3.2345678.4.2345678.5.2345678.6.2345678.7.2345678.8.2345678.9.2345678.0
            !-      Use '!' comments if they need to be retained when using the IDFEditor. 
 KRDRD  --> kardi1=   1  KARDI2=  79 KARDX=  80  mTxtP=     0  mStk=     0
      *   6 *
 KRDRD  <-3-  KARDI1=   1  KARDI2=   1  KARDX=   1  KRDNUM=   6 mTxtP =     0  mP=     0  mStk=     0
            .2345678.1.2345678.2.2345678.3.2345678.4.2345678.5.2345678.6.2345678.7.2345678.8.2345678.9.2345678.0
             
 KRDRD  --> kardi1=   1  KARDI2=   1 KARDX=   2  mTxtP=     0  mStk=     0
      *   7 *
 KRDRD  <-3-  KARDI1=   1  KARDI2=   1  KARDX=   1  KRDNUM=   7 mTxtP =     0  mP=     0  mStk=     0
            .2345678.1.2345678.2.2345678.3.2345678.4.2345678.5.2345678.6.2345678.7.2345678.8.2345678.9.2345678.0
             
 KRDRD  --> kardi1=   1  KARDI2=   1 KARDX=   2  mTxtP=     0  mStk=     0
      *   8 * !-   ===========  ALL OBJECTS IN CLASS: VERSION ===========
 KRDRD  <-3-  KARDI1=   1  KARDI2=  60  KARDX=   1  KRDNUM=   8 mTxtP =     0  mP=     0  mStk=     0
            .2345678.1.2345678.2.2345678.3.2345678.4.2345678.5.2345678.6.2345678.7.2345678.8.2345678.9.2345678.0
            !-   ===========  ALL OBJECTS IN CLASS: VERSION =========== 
 KRDRD  --> kardi1=   1  KARDI2=  60 KARDX=  61  mTxtP=     0  mStk=     0
      *   9 *
 KRDRD  <-3-  KARDI1=   1  KARDI2=   1  KARDX=   1  KRDNUM=   9 mTxtP =     0  mP=     0  mStk=     0
            .2345678.1.2345678.2.2345678.3.2345678.4.2345678.5.2345678.6.2345678.7.2345678.8.2345678.9.2345678.0
             
 KRDRD  --> kardi1=   1  KARDI2=   1 KARDX=   2  mTxtP=     0  mStk=     0
      *  10 * Version,
 KRDRD  <-3-  KARDI1=   1  KARDI2=   9  KARDX=   1  KRDNUM=  10 mTxtP =     0  mP=     0  mStk=     0
            .2345678.1.2345678.2.2345678.3.2345678.4.2345678.5.2345678.6.2345678.7.2345678.8.2345678.9.2345678.0
            Version, 
 KRDRD  --> kardi1=   1  KARDI2=   9 KARDX=  10  mTxtP=     0  mStk=     0
      *  11 *     8.6;                     !- Version Identifier
 KRDRD  <-3-  KARDI1=   1  KARDI2=  51  KARDX=   1  KRDNUM=  11 mTxtP =     0  mP=     0  mStk=     0
            .2345678.1.2345678.2.2345678.3.2345678.4.2345678.5.2345678.6.2345678.7.2345678.8.2345678.9.2345678.0
                8.6;                     !- Version Identifier 
 KRDRD  --> kardi1=   1  KARDI2=  51 KARDX=  52  mTxtP=     0  mStk=     0
      *  12 *
 KRDRD  <-3-  KARDI1=   1  KARDI2=   1  KARDX=   1  KRDNUM=  12 mTxtP =     0  mP=     0  mStk=     0
            .2345678.1.2345678.2.2345678.3.2345678.4.2345678.5.2345678.6.2345678.7.2345678.8.2345678.9.2345678.0
             
 KRDRD  --> kardi1=   1  KARDI2=   1 KARDX=   2  mTxtP=     0  mStk=     0
      *  13 *
 KRDRD  <-3-  KARDI1=   1  KARDI2=   1  KARDX=   1  KRDNUM=  13 mTxtP =     0  mP=     0  mStk=     0
            .2345678.1.2345678.2.2345678.3.2345678.4.2345678.5.2345678.6.2345678.7.2345678.8.2345678.9.2345678.0
             
 KRDRD  --> kardi1=   1  KARDI2=   1 KARDX=   2  mTxtP=     0  mStk=     0
      *  14 * !-   ===========  ALL OBJECTS IN CLASS: SIMULATIONCONTROL ===========
 KRDRD  <-3-  KARDI1=   1  KARDI2=  70  KARDX=   1  KRDNUM=  14 mTxtP =     0  mP=     0  mStk=     0
            .2345678.1.2345678.2.2345678.3.2345678.4.2345678.5.2345678.6.2345678.7.2345678.8.2345678.9.2345678.0
            !-   ===========  ALL OBJECTS IN CLASS: SIMULATIONCONTROL =========== 
 KRDRD  --> kardi1=   1  KARDI2=  70 KARDX=  71  mTxtP=     0  mStk=     0
      *  15 *
 KRDRD  <-3-  KARDI1=   1  KARDI2=   1  KARDX=   1  KRDNUM=  15 mTxtP =     0  mP=     0  mStk=     0
            .2345678.1.2345678.2.2345678.3.2345678.4.2345678.5.2345678.6.2345678.7.2345678.8.2345678.9.2345678.0
             
 KRDRD  --> kardi1=   1  KARDI2=   1 KARDX=   2  mTxtP=     0  mStk=     0
      *  16 * SimulationControl,
 KRDRD  <-3-  KARDI1=   1  KARDI2=  19  KARDX=   1  KRDNUM=  16 mTxtP =     0  mP=     0  mStk=     0
            .2345678.1.2345678.2.2345678.3.2345678.4.2345678.5.2345678.6.2345678.7.2345678.8.2345678.9.2345678.0
            SimulationControl, 
 KRDRD  --> kardi1=   1  KARDI2=  19 KARDX=  20  mTxtP=     0  mStk=     0
      *  17 *     Yes,                     !- Do Zone Sizing Calculation
 KRDRD  <-3-  KARDI1=   1  KARDI2=  59  KARDX=   1  KRDNUM=  17 mTxtP =     0  mP=     0  mStk=     0
            .2345678.1.2345678.2.2345678.3.2345678.4.2345678.5.2345678.6.2345678.7.2345678.8.2345678.9.2345678.0
                Yes,                     !- Do Zone Sizing Calculation 
 KRDRD  --> kardi1=   1  KARDI2=  59 KARDX=  60  mTxtP=     0  mStk=     0
      *  18 *     Yes,                     !- Do System Sizing Calculation
 KRDRD  <-3-  KARDI1=   1  KARDI2=  61  KARDX=   1  KRDNUM=  18 mTxtP =     0  mP=     0  mStk=     0
            .2345678.1.2345678.2.2345678.3.2345678.4.2345678.5.2345678.6.2345678.7.2345678.8.2345678.9.2345678.0
                Yes,                     !- Do System Sizing Calculation 
 KRDRD  --> kardi1=   1  KARDI2=  61 KARDX=  62  mTxtP=     0  mStk=     0
      *  19 *     No,                      !- Do Plant Sizing Calculation
 KRDRD  <-3-  KARDI1=   1  KARDI2=  60  KARDX=   1  KRDNUM=  19 mTxtP =     0  mP=     0  mStk=     0
            .2345678.1.2345678.2.2345678.3.2345678.4.2345678.5.2345678.6.2345678.7.2345678.8.2345678.9.2345678.0
                No,                      !- Do Plant Sizing Calculation 
 KRDRD  --> kardi1=   1  KARDI2=  60 KARDX=  61  mTxtP=     0  mStk=     0
      *  20 *     Yes,                     !- Run Simulation for Sizing Periods
 KRDRD  <-3-  KARDI1=   1  KARDI2=  66  KARDX=   1  KRDNUM=  20 mTxtP =     0  mP=     0  mStk=     0
            .2345678.1.2345678.2.2345678.3.2345678.4.2345678.5.2345678.6.2345678.7.2345678.8.2345678.9.2345678.0
                Yes,                     !- Run Simulation for Sizing Periods 
 KRDRD  --> kardi1=   1  KARDI2=  66 KARDX=  67  mTxtP=     0  mStk=     0
      *  21 *     Yes;                     !- Run Simulation for Weather File Run Periods
 KRDRD  <-3-  KARDI1=   1  KARDI2=  76  KARDX=   1  KRDNUM=  21 mTxtP =     0  mP=     0  mStk=     0
            .2345678.1.2345678.2.2345678.3.2345678.4.2345678.5.2345678.6.2345678.7.2345678.8.2345678.9.2345678.0
                Yes;                     !- Run Simulation for Weather File Run Periods 
 KRDRD  --> kardi1=   1  KARDI2=  76 KARDX=  77  mTxtP=     0  mStk=     0
      *  22 *
 KRDRD  <-3-  KARDI1=   1  KARDI2=   1  KARDX=   1  KRDNUM=  22 mTxtP =     0  mP=     0  mStk=     0
            .2345678.1.2345678.2.2345678.3.2345678.4.2345678.5.2345678.6.2345678.7.2345678.8.2345678.9.2345678.0
             
 KRDRD  --> kardi1=   1  KARDI2=   1 KARDX=   2  mTxtP=     0  mStk=     0
      *  23 *
 KRDRD  <-3-  KARDI1=   1  KARDI2=   1  KARDX=   1  KRDNUM=  23 mTxtP =     0  mP=     0  mStk=     0
            .2345678.1.2345678.2.2345678.3.2345678.4.2345678.5.2345678.6.2345678.7.2345678.8.2345678.9.2345678.0
             
 KRDRD  --> kardi1=   1  KARDI2=   1 KARDX=   2  mTxtP=     0  mStk=     0
      *  24 * !-   ===========  ALL OBJECTS IN CLASS: BUILDING ===========
 KRDRD  <-3-  KARDI1=   1  KARDI2=  61  KARDX=   1  KRDNUM=  24 mTxtP =     0  mP=     0  mStk=     0
            .2345678.1.2345678.2.2345678.3.2345678.4.2345678.5.2345678.6.2345678.7.2345678.8.2345678.9.2345678.0
            !-   ===========  ALL OBJECTS IN CLASS: BUILDING =========== 
 KRDRD  --> kardi1=   1  KARDI2=  61 KARDX=  62  mTxtP=     0  mStk=     0
      *  25 *
 KRDRD  <-3-  KARDI1=   1  KARDI2=   1  KARDX=   1  KRDNUM=  25 mTxtP =     0  mP=     0  mStk=     0
            .2345678.1.2345678.2.2345678.3.2345678.4.2345678.5.2345678.6.2345678.7.2345678.8.2345678.9.2345678.0
             
 KRDRD  --> kardi1=   1  KARDI2=   1 KARDX=   2  mTxtP=     0  mStk=     0
      *  26 * ! Orientation / Azimuth Nikhil
 KRDRD  <-3-  KARDI1=   1  KARDI2=  31  KARDX=   1  KRDNUM=  26 mTxtP =     0  mP=     0  mStk=     0
            .2345678.1.2345678.2.2345678.3.2345678.4.2345678.5.2345678.6.2345678.7.2345678.8.2345678.9.2345678.0
            ! Orientation / Azimuth Nikhil 
 KRDRD  --> kardi1=   1  KARDI2=  31 KARDX=  32  mTxtP=     0  mStk=     0
      *  27 * Building,
 KRDRD  <-3-  KARDI1=   1  KARDI2=  10  KARDX=   1  KRDNUM=  27 mTxtP =     0  mP=     0  mStk=     0
            .2345678.1.2345678.2.2345678.3.2345678.4.2345678.5.2345678.6.2345678.7.2345678.8.2345678.9.2345678.0
            Building, 
 KRDRD  --> kardi1=   1  KARDI2=  10 KARDX=  11  mTxtP=     0  mStk=     0
      *  28 *     Building,                !- Name
 KRDRD  <-3-  KARDI1=   1  KARDI2=  37  KARDX=   1  KRDNUM=  28 mTxtP =     0  mP=     0  mStk=     0
            .2345678.1.2345678.2.2345678.3.2345678.4.2345678.5.2345678.6.2345678.7.2345678.8.2345678.9.2345678.0
                Building,                !- Name 
 KRDRD  --> kardi1=   1  KARDI2=  37 KARDX=  38  mTxtP=     0  mStk=     0
      *  29 * ! Azimuth	degree
 KRDRD  <-3-  KARDI1=   1  KARDI2=  17  KARDX=   1  KRDNUM=  29 mTxtP =     0  mP=     0  mStk=     0
            .2345678.1.2345678.2.2345678.3.2345678.4.2345678.5.2345678.6.2345678.7.2345678.8.2345678.9.2345678.0
            ! Azimuth	degree 
 KRDRD  --> kardi1=   1  KARDI2=  17 KARDX=  18  mTxtP=     0  mStk=     0
      *  30 *     0.0,                     !- North Axis {deg}
 KRDRD  <-3-  KARDI1=   1  KARDI2=  49  KARDX=   1  KRDNUM=  30 mTxtP =     0  mP=     0  mStk=     0
            .2345678.1.2345678.2.2345678.3.2345678.4.2345678.5.2345678.6.2345678.7.2345678.8.2345678.9.2345678.0
                0.0,                     !- North Axis {deg} 
 KRDRD  --> kardi1=   1  KARDI2=  49 KARDX=  50  mTxtP=     0  mStk=     0
      *  31 *     Suburbs,                 !- Terrain
 KRDRD  <-3-  KARDI1=   1  KARDI2=  40  KARDX=   1  KRDNUM=  31 mTxtP =     0  mP=     0  mStk=     0
            .2345678.1.2345678.2.2345678.3.2345678.4.2345678.5.2345678.6.2345678.7.2345678.8.2345678.9.2345678.0
                Suburbs,                 !- Terrain 
 KRDRD  --> kardi1=   1  KARDI2=  40 KARDX=  41  mTxtP=     0  mStk=     0
      *  32 *     0.04,                    !- Loads Convergence Tolerance Value
 KRDRD  <-3-  KARDI1=   1  KARDI2=  66  KARDX=   1  KRDNUM=  32 mTxtP =     0  mP=     0  mStk=     0
            .2345678.1.2345678.2.2345678.3.2345678.4.2345678.5.2345678.6.2345678.7.2345678.8.2345678.9.2345678.0
                0.04,                    !- Loads Convergence Tolerance Value 
 KRDRD  --> kardi1=   1  KARDI2=  66 KARDX=  67  mTxtP=     0  mStk=     0
      *  33 *     0.4,                     !- Temperature Convergence Tolerance Value {deltaC}
 KRDRD  <-3-  KARDI1=   1  KARDI2=  81  KARDX=   1  KRDNUM=  33 mTxtP =     0  mP=     0  mStk=     0
            .2345678.1.2345678.2.2345678.3.2345678.4.2345678.5.2345678.6.2345678.7.2345678.8.2345678.9.2345678.0
                0.4,                     !- Temperature Convergence Tolerance Value {deltaC} 
 KRDRD  --> kardi1=   1  KARDI2=  81 KARDX=  82  mTxtP=     0  mStk=     0
      *  34 *     FullExterior,            !- Solar Distribution
 KRDRD  <-3-  KARDI1=   1  KARDI2=  51  KARDX=   1  KRDNUM=  34 mTxtP =     0  mP=     0  mStk=     0
            .2345678.1.2345678.2.2345678.3.2345678.4.2345678.5.2345678.6.2345678.7.2345678.8.2345678.9.2345678.0
                FullExterior,            !- Solar Distribution 
 KRDRD  --> kardi1=   1  KARDI2=  51 KARDX=  52  mTxtP=     0  mStk=     0
      *  35 *     25,                      !- Maximum Number of Warmup Days
 KRDRD  <-3-  KARDI1=   1  KARDI2=  62  KARDX=   1  KRDNUM=  35 mTxtP =     0  mP=     0  mStk=     0
            .2345678.1.2345678.2.2345678.3.2345678.4.2345678.5.2345678.6.2345678.7.2345678.8.2345678.9.2345678.0
                25,                      !- Maximum Number of Warmup Days 
 KRDRD  --> kardi1=   1  KARDI2=  62 KARDX=  63  mTxtP=     0  mStk=     0
      *  36 *     ;                        !- Minimum Number of Warmup Days
 KRDRD  <-3-  KARDI1=   1  KARDI2=  62  KARDX=   1  KRDNUM=  36 mTxtP =     0  mP=     0  mStk=     0
            .2345678.1.2345678.2.2345678.3.2345678.4.2345678.5.2345678.6.2345678.7.2345678.8.2345678.9.2345678.0
                ;                        !- Minimum Number of Warmup Days 
 KRDRD  --> kardi1=   1  KARDI2=  62 KARDX=  63  mTxtP=     0  mStk=     0
      *  37 *
 KRDRD  <-3-  KARDI1=   1  KARDI2=   1  KARDX=   1  KRDNUM=  37 mTxtP =     0  mP=     0  mStk=     0
            .2345678.1.2345678.2.2345678.3.2345678.4.2345678.5.2345678.6.2345678.7.2345678.8.2345678.9.2345678.0
             
 KRDRD  --> kardi1=   1  KARDI2=   1 KARDX=   2  mTxtP=     0  mStk=     0
      *  38 *
 KRDRD  <-3-  KARDI1=   1  KARDI2=   1  KARDX=   1  KRDNUM=  38 mTxtP =     0  mP=     0  mStk=     0
            .2345678.1.2345678.2.2345678.3.2345678.4.2345678.5.2345678.6.2345678.7.2345678.8.2345678.9.2345678.0
             
 KRDRD  --> kardi1=   1  KARDI2=   1 KARDX=   2  mTxtP=     0  mStk=     0
      *  39 * !-   ===========  ALL OBJECTS IN CLASS: TIMESTEP ===========
 KRDRD  <-3-  KARDI1=   1  KARDI2=  61  KARDX=   1  KRDNUM=  39 mTxtP =     0  mP=     0  mStk=     0
            .2345678.1.2345678.2.2345678.3.2345678.4.2345678.5.2345678.6.2345678.7.2345678.8.2345678.9.2345678.0
            !-   ===========  ALL OBJECTS IN CLASS: TIMESTEP =========== 
 KRDRD  --> kardi1=   1  KARDI2=  61 KARDX=  62  mTxtP=     0  mStk=     0
      *  40 *
 KRDRD  <-3-  KARDI1=   1  KARDI2=   1  KARDX=   1  KRDNUM=  40 mTxtP =     0  mP=     0  mStk=     0
            .2345678.1.2345678.2.2345678.3.2345678.4.2345678.5.2345678.6.2345678.7.2345678.8.2345678.9.2345678.0
             
 KRDRD  --> kardi1=   1  KARDI2=   1 KARDX=   2  mTxtP=     0  mStk=     0
      *  41 * Timestep,
 KRDRD  <-3-  KARDI1=   1  KARDI2=  10  KARDX=   1  KRDNUM=  41 mTxtP =     0  mP=     0  mStk=     0
            .2345678.1.2345678.2.2345678.3.2345678.4.2345678.5.2345678.6.2345678.7.2345678.8.2345678.9.2345678.0
            Timestep, 
 KRDRD  --> kardi1=   1  KARDI2=  10 KARDX=  11  mTxtP=     0  mStk=     0
      *  42 *     6;                       !- Number of Timesteps per Hour
 KRDRD  <-3-  KARDI1=   1  KARDI2=  61  KARDX=   1  KRDNUM=  42 mTxtP =     0  mP=     0  mStk=     0
            .2345678.1.2345678.2.2345678.3.2345678.4.2345678.5.2345678.6.2345678.7.2345678.8.2345678.9.2345678.0
                6;                       !- Number of Timesteps per Hour 
 KRDRD  --> kardi1=   1  KARDI2=  61 KARDX=  62  mTxtP=     0  mStk=     0
      *  43 *
 KRDRD  <-3-  KARDI1=   1  KARDI2=   1  KARDX=   1  KRDNUM=  43 mTxtP =     0  mP=     0  mStk=     0
            .2345678.1.2345678.2.2345678.3.2345678.4.2345678.5.2345678.6.2345678.7.2345678.8.2345678.9.2345678.0
             
 KRDRD  --> kardi1=   1  KARDI2=   1 KARDX=   2  mTxtP=     0  mStk=     0
      *  44 *
 KRDRD  <-3-  KARDI1=   1  KARDI2=   1  KARDX=   1  KRDNUM=  44 mTxtP =     0  mP=     0  mStk=     0
            .2345678.1.2345678.2.2345678.3.2345678.4.2345678.5.2345678.6.2345678.7.2345678.8.2345678.9.2345678.0
             
 KRDRD  --> kardi1=   1  KARDI2=   1 KARDX=   2  mTxtP=     0  mStk=     0
      *  45 *
 KRDRD  <-3-  KARDI1=   1  KARDI2=   1  KARDX=   1  KRDNUM=  45 mTxtP =     0  mP=     0  mStk=     0
            .2345678.1.2345678.2.2345678.3.2345678.4.2345678.5.2345678.6.2345678.7.2345678.8.2345678.9.2345678.0
             
 KRDRD  --> kardi1=   1  KARDI2=   1 KARDX=   2  mTxtP=     0  mStk=     0
      *  46 *
 KRDRD  <-3-  KARDI1=   1  KARDI2=   1  KARDX=   1  KRDNUM=  46 mTxtP =     0  mP=     0  mStk=     0
            .2345678.1.2345678.2.2345678.3.2345678.4.2345678.5.2345678.6.2345678.7.2345678.8.2345678.9.2345678.0
             
 KRDRD  --> kardi1=   1  KARDI2=   1 KARDX=   2  mTxtP=     0  mStk=     0
      *  47 *
 KRDRD  <-3-  KARDI1=   1  KARDI2=   1  KARDX=   1  KRDNUM=  47 mTxtP =     0  mP=     0  mStk=     0
            .2345678.1.2345678.2.2345678.3.2345678.4.2345678.5.2345678.6.2345678.7.2345678.8.2345678.9.2345678.0
             
 KRDRD  --> kardi1=   1  KARDI2=   1 KARDX=   2  mTxtP=     0  mStk=     0
      *  48 * !-   ===========  ALL OBJECTS IN CLASS: RUNPERIOD ===========
 KRDRD  <-3-  KARDI1=   1  KARDI2=  62  KARDX=   1  KRDNUM=  48 mTxtP =     0  mP=     0  mStk=     0
            .2345678.1.2345678.2.2345678.3.2345678.4.2345678.5.2345678.6.2345678.7.2345678.8.2345678.9.2345678.0
            !-   ===========  ALL OBJECTS IN CLASS: RUNPERIOD =========== 
 KRDRD  --> kardi1=   1  KARDI2=  62 KARDX=  63  mTxtP=     0  mStk=     0
      *  49 *
 KRDRD  <-3-  KARDI1=   1  KARDI2=   1  KARDX=   1  KRDNUM=  49 mTxtP =     0  mP=     0  mStk=     0
            .2345678.1.2345678.2.2345678.3.2345678.4.2345678.5.2345678.6.2345678.7.2345678.8.2345678.9.2345678.0
             
 KRDRD  --> kardi1=   1  KARDI2=   1 KARDX=   2  mTxtP=     0  mStk=     0
      *  50 * RunPeriod,
 KRDRD  <-3-  KARDI1=   1  KARDI2=  11  KARDX=   1  KRDNUM=  50 mTxtP =     0  mP=     0  mStk=     0
            .2345678.1.2345678.2.2345678.3.2345678.4.2345678.5.2345678.6.2345678.7.2345678.8.2345678.9.2345678.0
            RunPeriod, 
 KRDRD  --> kardi1=   1  KARDI2=  11 KARDX=  12  mTxtP=     0  mStk=     0
      *  51 *     Annualsim,               !- Name
 KRDRD  <-3-  KARDI1=   1  KARDI2=  37  KARDX=   1  KRDNUM=  51 mTxtP =     0  mP=     0  mStk=     0
            .2345678.1.2345678.2.2345678.3.2345678.4.2345678.5.2345678.6.2345678.7.2345678.8.2345678.9.2345678.0
                Annualsim,               !- Name 
 KRDRD  --> kardi1=   1  KARDI2=  37 KARDX=  38  mTxtP=     0  mStk=     0
      *  52 *     1,                       !- Begin Month
 KRDRD  <-3-  KARDI1=   1  KARDI2=  44  KARDX=   1  KRDNUM=  52 mTxtP =     0  mP=     0  mStk=     0
            .2345678.1.2345678.2.2345678.3.2345678.4.2345678.5.2345678.6.2345678.7.2345678.8.2345678.9.2345678.0
                1,                       !- Begin Month 
 KRDRD  --> kardi1=   1  KARDI2=  44 KARDX=  45  mTxtP=     0  mStk=     0
      *  53 *     1,                       !- Begin Day of Month
 KRDRD  <-3-  KARDI1=   1  KARDI2=  51  KARDX=   1  KRDNUM=  53 mTxtP =     0  mP=     0  mStk=     0
            .2345678.1.2345678.2.2345678.3.2345678.4.2345678.5.2345678.6.2345678.7.2345678.8.2345678.9.2345678.0
                1,                       !- Begin Day of Month 
 KRDRD  --> kardi1=   1  KARDI2=  51 KARDX=  52  mTxtP=     0  mStk=     0
      *  54 *     12,                      !- End Month
 KRDRD  <-3-  KARDI1=   1  KARDI2=  42  KARDX=   1  KRDNUM=  54 mTxtP =     0  mP=     0  mStk=     0
            .2345678.1.2345678.2.2345678.3.2345678.4.2345678.5.2345678.6.2345678.7.2345678.8.2345678.9.2345678.0
                12,                      !- End Month 
 KRDRD  --> kardi1=   1  KARDI2=  42 KARDX=  43  mTxtP=     0  mStk=     0
      *  55 *     31,                      !- End Day of Month
 KRDRD  <-3-  KARDI1=   1  KARDI2=  49  KARDX=   1  KRDNUM=  55 mTxtP =     0  mP=     0  mStk=     0
            .2345678.1.2345678.2.2345678.3.2345678.4.2345678.5.2345678.6.2345678.7.2345678.8.2345678.9.2345678.0
                31,                      !- End Day of Month 
 KRDRD  --> kardi1=   1  KARDI2=  49 KARDX=  50  mTxtP=     0  mStk=     0
      *  56 *     UseWeatherFile,          !- Day of Week for Start Day
 KRDRD  <-3-  KARDI1=   1  KARDI2=  58  KARDX=   1  KRDNUM=  56 mTxtP =     0  mP=     0  mStk=     0
            .2345678.1.2345678.2.2345678.3.2345678.4.2345678.5.2345678.6.2345678.7.2345678.8.2345678.9.2345678.0
                UseWeatherFile,          !- Day of Week for Start Day 
 KRDRD  --> kardi1=   1  KARDI2=  58 KARDX=  59  mTxtP=     0  mStk=     0
      *  57 *     Yes,                     !- Use Weather File Holidays and Special Days
 KRDRD  <-3-  KARDI1=   1  KARDI2=  75  KARDX=   1  KRDNUM=  57 mTxtP =     0  mP=     0  mStk=     0
            .2345678.1.2345678.2.2345678.3.2345678.4.2345678.5.2345678.6.2345678.7.2345678.8.2345678.9.2345678.0
                Yes,                     !- Use Weather File Holidays and Special Days 
 KRDRD  --> kardi1=   1  KARDI2=  75 KARDX=  76  mTxtP=     0  mStk=     0
      *  58 *     Yes,                     !- Use Weather File Daylight Saving Period
 KRDRD  <-3-  KARDI1=   1  KARDI2=  72  KARDX=   1  KRDNUM=  58 mTxtP =     0  mP=     0  mStk=     0
            .2345678.1.2345678.2.2345678.3.2345678.4.2345678.5.2345678.6.2345678.7.2345678.8.2345678.9.2345678.0
                Yes,                     !- Use Weather File Daylight Saving Period 
 KRDRD  --> kardi1=   1  KARDI2=  72 KARDX=  73  mTxtP=     0  mStk=     0
      *  59 *     No,                      !- Apply Weekend Holiday Rule
 KRDRD  <-3-  KARDI1=   1  KARDI2=  59  KARDX=   1  KRDNUM=  59 mTxtP =     0  mP=     0  mStk=     0
            .2345678.1.2345678.2.2345678.3.2345678.4.2345678.5.2345678.6.2345678.7.2345678.8.2345678.9.2345678.0
                No,                      !- Apply Weekend Holiday Rule 
 KRDRD  --> kardi1=   1  KARDI2=  59 KARDX=  60  mTxtP=     0  mStk=     0
      *  60 *     Yes,                     !- Use Weather File Rain Indicators
 KRDRD  <-3-  KARDI1=   1  KARDI2=  65  KARDX=   1  KRDNUM=  60 mTxtP =     0  mP=     0  mStk=     0
            .2345678.1.2345678.2.2345678.3.2345678.4.2345678.5.2345678.6.2345678.7.2345678.8.2345678.9.2345678.0
                Yes,                     !- Use Weather File Rain Indicators 
 KRDRD  --> kardi1=   1  KARDI2=  65 KARDX=  66  mTxtP=     0  mStk=     0
      *  61 *     Yes,                     !- Use Weather File Snow Indicators
 KRDRD  <-3-  KARDI1=   1  KARDI2=  65  KARDX=   1  KRDNUM=  61 mTxtP =     0  mP=     0  mStk=     0
            .2345678.1.2345678.2.2345678.3.2345678.4.2345678.5.2345678.6.2345678.7.2345678.8.2345678.9.2345678.0
                Yes,                     !- Use Weather File Snow Indicators 
 KRDRD  --> kardi1=   1  KARDI2=  65 KARDX=  66  mTxtP=     0  mStk=     0
      *  62 *     1,                       !- Number of Times Runperiod to be Repeated
 KRDRD  <-3-  KARDI1=   1  KARDI2=  73  KARDX=   1  KRDNUM=  62 mTxtP =     0  mP=     0  mStk=     0
            .2345678.1.2345678.2.2345678.3.2345678.4.2345678.5.2345678.6.2345678.7.2345678.8.2345678.9.2345678.0
                1,                       !- Number of Times Runperiod to be Repeated 
 KRDRD  --> kardi1=   1  KARDI2=  73 KARDX=  74  mTxtP=     0  mStk=     0
      *  63 *     Yes;                     !- Increment Day of Week on repeat
 KRDRD  <-3-  KARDI1=   1  KARDI2=  64  KARDX=   1  KRDNUM=  63 mTxtP =     0  mP=     0  mStk=     0
            .2345678.1.2345678.2.2345678.3.2345678.4.2345678.5.2345678.6.2345678.7.2345678.8.2345678.9.2345678.0
                Yes;                     !- Increment Day of Week on repeat 
 KRDRD  --> kardi1=   1  KARDI2=  64 KARDX=  65  mTxtP=     0  mStk=     0
      *  64 *
 KRDRD  <-3-  KARDI1=   1  KARDI2=   1  KARDX=   1  KRDNUM=  64 mTxtP =     0  mP=     0  mStk=     0
            .2345678.1.2345678.2.2345678.3.2345678.4.2345678.5.2345678.6.2345678.7.2345678.8.2345678.9.2345678.0
             
 KRDRD  --> kardi1=   1  KARDI2=   1 KARDX=   2  mTxtP=     0  mStk=     0
      *  65 *
 KRDRD  <-3-  KARDI1=   1  KARDI2=   1  KARDX=   1  KRDNUM=  65 mTxtP =     0  mP=     0  mStk=     0
            .2345678.1.2345678.2.2345678.3.2345678.4.2345678.5.2345678.6.2345678.7.2345678.8.2345678.9.2345678.0
             
 KRDRD  --> kardi1=   1  KARDI2=   1 KARDX=   2  mTxtP=     0  mStk=     0
      *  66 *
 KRDRD  <-3-  KARDI1=   1  KARDI2=   1  KARDX=   1  KRDNUM=  66 mTxtP =     0  mP=     0  mStk=     0
            .2345678.1.2345678.2.2345678.3.2345678.4.2345678.5.2345678.6.2345678.7.2345678.8.2345678.9.2345678.0
             
 KRDRD  --> kardi1=   1  KARDI2=   1 KARDX=   2  mTxtP=     0  mStk=     0
      *  67 *
 KRDRD  <-3-  KARDI1=   1  KARDI2=   1  KARDX=   1  KRDNUM=  67 mTxtP =     0  mP=     0  mStk=     0
            .2345678.1.2345678.2.2345678.3.2345678.4.2345678.5.2345678.6.2345678.7.2345678.8.2345678.9.2345678.0
             
 KRDRD  --> kardi1=   1  KARDI2=   1 KARDX=   2  mTxtP=     0  mStk=     0
      *  68 *
 KRDRD  <-3-  KARDI1=   1  KARDI2=   1  KARDX=   1  KRDNUM=  68 mTxtP =     0  mP=     0  mStk=     0
            .2345678.1.2345678.2.2345678.3.2345678.4.2345678.5.2345678.6.2345678.7.2345678.8.2345678.9.2345678.0
             
 KRDRD  --> kardi1=   1  KARDI2=   1 KARDX=   2  mTxtP=     0  mStk=     0
      *  69 *
 KRDRD  <-3-  KARDI1=   1  KARDI2=   1  KARDX=   1  KRDNUM=  69 mTxtP =     0  mP=     0  mStk=     0
            .2345678.1.2345678.2.2345678.3.2345678.4.2345678.5.2345678.6.2345678.7.2345678.8.2345678.9.2345678.0
             
 KRDRD  --> kardi1=   1  KARDI2=   1 KARDX=   2  mTxtP=     0  mStk=     0
      *  70 *
 KRDRD  <-3-  KARDI1=   1  KARDI2=   1  KARDX=   1  KRDNUM=  70 mTxtP =     0  mP=     0  mStk=     0
            .2345678.1.2345678.2.2345678.3.2345678.4.2345678.5.2345678.6.2345678.7.2345678.8.2345678.9.2345678.0
             
 KRDRD  --> kardi1=   1  KARDI2=   1 KARDX=   2  mTxtP=     0  mStk=     0
      *  71 *
 KRDRD  <-3-  KARDI1=   1  KARDI2=   1  KARDX=   1  KRDNUM=  71 mTxtP =     0  mP=     0  mStk=     0
            .2345678.1.2345678.2.2345678.3.2345678.4.2345678.5.2345678.6.2345678.7.2345678.8.2345678.9.2345678.0
             
 KRDRD  --> kardi1=   1  KARDI2=   1 KARDX=   2  mTxtP=     0  mStk=     0
      *  72 * !-   ===========  ALL OBJECTS IN CLASS: SIZINGPERIOD:DESIGNDAY ===========
 KRDRD  <-3-  KARDI1=   1  KARDI2=  75  KARDX=   1  KRDNUM=  72 mTxtP =     0  mP=     0  mStk=     0
            .2345678.1.2345678.2.2345678.3.2345678.4.2345678.5.2345678.6.2345678.7.2345678.8.2345678.9.2345678.0
            !-   ===========  ALL OBJECTS IN CLASS: SIZINGPERIOD:DESIGNDAY =========== 
 KRDRD  --> kardi1=   1  KARDI2=  75 KARDX=  76  mTxtP=     0  mStk=     0
      *  73 *
 KRDRD  <-3-  KARDI1=   1  KARDI2=   1  KARDX=   1  KRDNUM=  73 mTxtP =     0  mP=     0  mStk=     0
            .2345678.1.2345678.2.2345678.3.2345678.4.2345678.5.2345678.6.2345678.7.2345678.8.2345678.9.2345678.0
             
 KRDRD  --> kardi1=   1  KARDI2=   1 KARDX=   2  mTxtP=     0  mStk=     0
      *  74 * SizingPeriod:DesignDay,
 KRDRD  <-3-  KARDI1=   1  KARDI2=  24  KARDX=   1  KRDNUM=  74 mTxtP =     0  mP=     0  mStk=     0
            .2345678.1.2345678.2.2345678.3.2345678.4.2345678.5.2345678.6.2345678.7.2345678.8.2345678.9.2345678.0
            SizingPeriod:DesignDay, 
 KRDRD  --> kardi1=   1  KARDI2=  24 KARDX=  25  mTxtP=     0  mStk=     0
      *  75 *     New Delhi Ann Htg 99.6% Condns DB,  !- Name
 KRDRD  <-3-  KARDI1=   1  KARDI2=  48  KARDX=   1  KRDNUM=  75 mTxtP =     0  mP=     0  mStk=     0
            .2345678.1.2345678.2.2345678.3.2345678.4.2345678.5.2345678.6.2345678.7.2345678.8.2345678.9.2345678.0
                New Delhi Ann Htg 99.6% Condns DB,  !- Name 
 KRDRD  --> kardi1=   1  KARDI2=  48 KARDX=  49  mTxtP=     0  mStk=     0
      *  76 *     1,                       !- Month
 KRDRD  <-3-  KARDI1=   1  KARDI2=  38  KARDX=   1  KRDNUM=  76 mTxtP =     0  mP=     0  mStk=     0
            .2345678.1.2345678.2.2345678.3.2345678.4.2345678.5.2345678.6.2345678.7.2345678.8.2345678.9.2345678.0
                1,                       !- Month 
 KRDRD  --> kardi1=   1  KARDI2=  38 KARDX=  39  mTxtP=     0  mStk=     0
      *  77 *     21,                      !- Day of Month
 KRDRD  <-3-  KARDI1=   1  KARDI2=  45  KARDX=   1  KRDNUM=  77 mTxtP =     0  mP=     0  mStk=     0
            .2345678.1.2345678.2.2345678.3.2345678.4.2345678.5.2345678.6.2345678.7.2345678.8.2345678.9.2345678.0
                21,                      !- Day of Month 
 KRDRD  --> kardi1=   1  KARDI2=  45 KARDX=  46  mTxtP=     0  mStk=     0
      *  78 *     WinterDesignDay,         !- Day Type
 KRDRD  <-3-  KARDI1=   1  KARDI2=  41  KARDX=   1  KRDNUM=  78 mTxtP =     0  mP=     0  mStk=     0
            .2345678.1.2345678.2.2345678.3.2345678.4.2345678.5.2345678.6.2345678.7.2345678.8.2345678.9.2345678.0
                WinterDesignDay,         !- Day Type 
 KRDRD  --> kardi1=   1  KARDI2=  41 KARDX=  42  mTxtP=     0  mStk=     0